Version 4
SHEET 1 880 680
WIRE -1056 -720 -1216 -720
WIRE -144 -704 -288 -704
WIRE -80 -704 -144 -704
WIRE -752 -688 -784 -688
WIRE -640 -688 -688 -688
WIRE -288 -688 -288 -704
WIRE -144 -688 -144 -704
WIRE -1216 -624 -1216 -720
WIRE -1168 -624 -1216 -624
WIRE -80 -624 -80 -704
WIRE -1056 -608 -1056 -720
WIRE -1056 -608 -1104 -608
WIRE -1024 -608 -1056 -608
WIRE -928 -608 -960 -608
WIRE -912 -608 -928 -608
WIRE -784 -608 -784 -688
WIRE -784 -608 -832 -608
WIRE -752 -608 -784 -608
WIRE -640 -608 -640 -688
WIRE -640 -608 -672 -608
WIRE -544 -608 -640 -608
WIRE -448 -608 -464 -608
WIRE -1408 -592 -1456 -592
WIRE -1296 -592 -1328 -592
WIRE -1216 -592 -1232 -592
WIRE -1168 -592 -1216 -592
WIRE -288 -592 -288 -608
WIRE -288 -592 -320 -592
WIRE -208 -592 -288 -592
WIRE -288 -576 -288 -592
WIRE -208 -576 -208 -592
WIRE -608 -560 -720 -560
WIRE -752 -528 -784 -528
WIRE -640 -528 -688 -528
WIRE -1456 -512 -1456 -592
WIRE -1216 -496 -1216 -512
WIRE -288 -480 -288 -496
WIRE -208 -480 -208 -512
WIRE -208 -480 -288 -480
WIRE -144 -480 -144 -624
WIRE -144 -480 -208 -480
WIRE -80 -480 -80 -544
WIRE -80 -480 -144 -480
WIRE -928 -464 -928 -608
WIRE -912 -464 -928 -464
WIRE -784 -464 -784 -528
WIRE -784 -464 -832 -464
WIRE -752 -464 -784 -464
WIRE -640 -464 -640 -528
WIRE -640 -464 -672 -464
WIRE -544 -464 -640 -464
WIRE -448 -464 -448 -608
WIRE -448 -464 -464 -464
WIRE -144 -464 -144 -480
WIRE -720 -384 -720 -416
WIRE -688 -384 -720 -384
WIRE -608 -384 -608 -480
WIRE -608 -384 -624 -384
WIRE -928 -336 -928 -464
WIRE -912 -336 -928 -336
WIRE -752 -336 -832 -336
WIRE -544 -336 -672 -336
WIRE -448 -336 -448 -464
WIRE -448 -336 -464 -336
WIRE -608 -288 -608 -384
WIRE -448 -288 -448 -336
WIRE -448 -288 -544 -288
WIRE -720 -240 -720 -288
WIRE -688 -240 -720 -240
WIRE -608 -240 -608 -288
WIRE -608 -240 -624 -240
WIRE -528 -240 -608 -240
WIRE -448 -224 -448 -288
WIRE -448 -224 -464 -224
WIRE -432 -224 -448 -224
WIRE -320 -224 -352 -224
WIRE -224 -224 -256 -224
WIRE -528 -208 -544 -208
WIRE -1456 -128 -1456 -432
WIRE -1136 -128 -1136 -576
WIRE -1136 -128 -1456 -128
WIRE -496 -128 -496 -192
WIRE -496 -128 -1136 -128
WIRE -224 -128 -224 -144
WIRE -224 -128 -496 -128
WIRE -1136 -112 -1136 -128
FLAG -144 -464 0
FLAG -288 -704 +
FLAG -496 -256 +
FLAG -1136 -640 +
FLAG -320 -592 Ref
FLAG -544 -208 Ref
FLAG -1216 -496 Ref
FLAG -1136 -112 0
SYMBOL cap -1232 -608 R90
WINDOW 0 0 32 VBottom 2
WINDOW 3 32 32 VTop 2
SYMATTR InstName C1
SYMATTR Value 0.1µ
SYMBOL Opamps\\opamp2 -1136 -672 R0
WINDOW 3 16 96 Invisible 2
WINDOW 38 25 102 Left 2
SYMATTR Value TL062
SYMATTR SpiceModel TL062
SYMATTR InstName U1
SYMBOL Opamps\\opamp2 -496 -288 R0
WINDOW 3 16 96 Invisible 2
SYMATTR Value TL062
SYMATTR InstName U2
SYMATTR SpiceModel TL062
SYMBOL cap -960 -624 R90
WINDOW 0 0 32 VBottom 2
WINDOW 3 32 32 VTop 2
SYMATTR InstName C2
SYMATTR Value 2.2µ
SYMBOL res -816 -624 R90
WINDOW 0 0 56 VBottom 2
WINDOW 3 32 56 VTop 2
SYMATTR InstName R3
SYMATTR Value 22K
SYMBOL res -816 -480 R90
WINDOW 0 0 56 VBottom 2
WINDOW 3 32 56 VTop 2
SYMATTR InstName R4
SYMATTR Value 10K
SYMBOL res -816 -352 R90
WINDOW 0 0 56 VBottom 2
WINDOW 3 32 56 VTop 2
SYMATTR InstName R5
SYMATTR Value 4.7K
SYMBOL voltage -1456 -528 R0
WINDOW 123 30 137 Left 2
WINDOW 39 0 0 Left 2
SYMATTR Value2 AC 1
SYMATTR InstName V1
SYMATTR Value SINE(0 0.1V 1000)
SYMBOL Misc\\potentiometer -656 -624 R90
WINDOW 0 31 -4 VRight 2
WINDOW 3 54 -40 Invisible 2
SYMATTR InstName U3
SYMATTR Value Rtot=100K wiper=.5
SYMBOL Misc\\potentiometer -656 -480 R90
WINDOW 0 30 -2 VRight 2
WINDOW 3 36 88 Invisible 2
SYMATTR InstName U4
SYMATTR Value Rtot=100K wiper={w}
SYMBOL Misc\\potentiometer -656 -352 R90
WINDOW 0 32 -5 VRight 2
WINDOW 3 36 88 Invisible 2
SYMATTR InstName U5
SYMATTR Value Rtot=100K wiper=.5
SYMBOL cap -624 -400 R90
WINDOW 0 0 32 VBottom 2
WINDOW 3 32 32 VTop 2
SYMATTR InstName C3
SYMATTR Value 10n
SYMBOL cap -624 -256 R90
WINDOW 0 0 32 VBottom 2
WINDOW 3 32 32 VTop 2
SYMATTR InstName C4
SYMATTR Value 2.2n
SYMBOL res -448 -624 R90
WINDOW 0 0 56 VBottom 2
WINDOW 3 32 56 VTop 2
SYMATTR InstName R6
SYMATTR Value 22K
SYMBOL res -624 -576 R0
SYMATTR InstName R7
SYMATTR Value 10K
SYMBOL res -448 -480 R90
WINDOW 0 0 56 VBottom 2
WINDOW 3 32 56 VTop 2
SYMATTR InstName R8
SYMATTR Value 10K
SYMBOL res -448 -352 R90
WINDOW 0 0 56 VBottom 2
WINDOW 3 32 56 VTop 2
SYMATTR InstName R9
SYMATTR Value 4.7K
SYMBOL cap -256 -240 R90
WINDOW 0 0 32 VBottom 2
WINDOW 3 32 32 VTop 2
SYMATTR InstName C5
SYMATTR Value 10µ
SYMBOL cap -688 -704 R90
WINDOW 0 0 32 VBottom 2
WINDOW 3 32 32 VTop 2
SYMATTR InstName C6
SYMATTR Value 22n
SYMBOL cap -688 -544 R90
WINDOW 0 9 55 VBottom 2
WINDOW 3 32 32 VTop 2
SYMATTR InstName C7
SYMATTR Value 3.3n
SYMBOL res -240 -240 R0
SYMATTR InstName R10
SYMATTR Value 500K
SYMBOL res -304 -592 R0
WINDOW 3 19 87 Left 2
SYMATTR Value 100K
SYMATTR InstName R11
SYMBOL res -304 -704 R0
SYMATTR InstName R12
SYMATTR Value 100K
SYMBOL cap -224 -576 R0
SYMATTR InstName C8
SYMATTR Value 1µ
SYMBOL voltage -80 -640 R0
WINDOW 123 0 0 Left 2
WINDOW 39 24 44 Left 2
SYMATTR SpiceLine Rser=5
SYMATTR InstName V2
SYMATTR Value 9V
SYMBOL cap -160 -688 R0
SYMATTR InstName C9
SYMATTR Value 10µ
SYMBOL cap -544 -304 R90
WINDOW 0 0 32 VBottom 2
WINDOW 3 32 32 VTop 2
SYMATTR InstName C10
SYMATTR Value 100pF
SYMBOL res -1232 -608 R0
SYMATTR InstName R13
SYMATTR Value 5Meg
SYMBOL res -336 -240 R90
WINDOW 0 0 56 VBottom 2
WINDOW 3 32 56 VTop 2
SYMATTR InstName R14
SYMATTR Value 470
SYMBOL res -1312 -608 R90
WINDOW 0 0 56 VBottom 2
WINDOW 3 32 56 VTop 2
SYMATTR InstName R1
SYMATTR Value 1K
TEXT -1464 -80 Left 2 !;tran 3
TEXT -1464 -40 Left 2 !.ac oct 10 20 20000
TEXT -928 -88 Left 2 !.inc TL062.sub
TEXT -944 -40 Left 2 !.inc potentiometer.sub
TEXT -1216 -40 Left 2 !.step lin param w 0 1 0.1
TEXT -600 -720 Left 2 ;U3 - U5: 100K LIN
TEXT -1000 -784 Left 2 ;Preampli 3 EQ\nversion basse
