Version 4
SHEET 1 880 680
WIRE -1056 -800 -1216 -800
WIRE -752 -768 -784 -768
WIRE -640 -768 -688 -768
WIRE -1216 -704 -1216 -800
WIRE -1168 -704 -1216 -704
WIRE -144 -704 -288 -704
WIRE -80 -704 -144 -704
WIRE -1056 -688 -1056 -800
WIRE -1056 -688 -1104 -688
WIRE -1024 -688 -1056 -688
WIRE -928 -688 -960 -688
WIRE -912 -688 -928 -688
WIRE -784 -688 -784 -768
WIRE -784 -688 -832 -688
WIRE -752 -688 -784 -688
WIRE -640 -688 -640 -768
WIRE -640 -688 -672 -688
WIRE -544 -688 -640 -688
WIRE -448 -688 -464 -688
WIRE -288 -688 -288 -704
WIRE -144 -688 -144 -704
WIRE -1456 -672 -1536 -672
WIRE -1328 -672 -1376 -672
WIRE -1232 -672 -1264 -672
WIRE -1168 -672 -1232 -672
WIRE -608 -640 -720 -640
WIRE -80 -624 -80 -704
WIRE -608 -608 -608 -640
WIRE -752 -592 -784 -592
WIRE -640 -592 -688 -592
WIRE -288 -592 -288 -608
WIRE -288 -592 -320 -592
WIRE -208 -592 -288 -592
WIRE -1232 -576 -1232 -672
WIRE -288 -576 -288 -592
WIRE -208 -576 -208 -592
WIRE -1536 -512 -1536 -672
WIRE -928 -512 -928 -688
WIRE -912 -512 -928 -512
WIRE -784 -512 -784 -592
WIRE -784 -512 -832 -512
WIRE -752 -512 -784 -512
WIRE -640 -512 -640 -592
WIRE -640 -512 -672 -512
WIRE -544 -512 -640 -512
WIRE -448 -512 -448 -688
WIRE -448 -512 -464 -512
WIRE -288 -480 -288 -496
WIRE -208 -480 -208 -512
WIRE -208 -480 -288 -480
WIRE -144 -480 -144 -624
WIRE -144 -480 -208 -480
WIRE -80 -480 -80 -544
WIRE -80 -480 -144 -480
WIRE -144 -464 -144 -480
WIRE -1232 -448 -1232 -496
WIRE -720 -416 -720 -464
WIRE -688 -416 -720 -416
WIRE -608 -416 -608 -528
WIRE -608 -416 -624 -416
WIRE -928 -336 -928 -512
WIRE -912 -336 -928 -336
WIRE -752 -336 -832 -336
WIRE -544 -336 -672 -336
WIRE -448 -336 -448 -512
WIRE -448 -336 -464 -336
WIRE -720 -240 -720 -288
WIRE -688 -240 -720 -240
WIRE -608 -240 -608 -416
WIRE -608 -240 -624 -240
WIRE -528 -240 -608 -240
WIRE -448 -224 -448 -336
WIRE -448 -224 -464 -224
WIRE -432 -224 -448 -224
WIRE -320 -224 -352 -224
WIRE -224 -224 -256 -224
WIRE -528 -208 -544 -208
WIRE -1536 -128 -1536 -432
WIRE -1136 -128 -1136 -656
WIRE -1136 -128 -1536 -128
WIRE -496 -128 -496 -192
WIRE -496 -128 -1136 -128
WIRE -224 -128 -224 -144
WIRE -224 -128 -496 -128
WIRE -1136 -112 -1136 -128
FLAG -144 -464 0
FLAG -288 -704 +
FLAG -496 -256 +
FLAG -1136 -720 +
FLAG -320 -592 Ref
FLAG -544 -208 Ref
FLAG -1232 -448 Ref
FLAG -1136 -112 0
SYMBOL cap -1264 -688 R90
WINDOW 0 0 32 VBottom 2
WINDOW 3 32 32 VTop 2
SYMATTR InstName C1
SYMATTR Value 0.1µ
SYMBOL Opamps\\opamp2 -1136 -752 R0
WINDOW 3 16 96 Invisible 2
WINDOW 38 23 96 Left 2
WINDOW 0 30 30 Left 2
SYMATTR Value TL062
SYMATTR SpiceModel TL062
SYMATTR InstName U1
SYMBOL Opamps\\opamp2 -496 -288 R0
WINDOW 3 16 96 Invisible 2
SYMATTR Value TL062
SYMATTR InstName U2
SYMATTR SpiceModel TL062
SYMBOL cap -960 -704 R90
WINDOW 0 0 32 VBottom 2
WINDOW 3 32 32 VTop 2
SYMATTR InstName C2
SYMATTR Value 0.5µ
SYMBOL res -816 -704 R90
WINDOW 0 0 56 VBottom 2
WINDOW 3 32 56 VTop 2
SYMATTR InstName R3
SYMATTR Value 47K
SYMBOL res -816 -528 R90
WINDOW 0 0 56 VBottom 2
WINDOW 3 32 56 VTop 2
SYMATTR InstName R4
SYMATTR Value 20K
SYMBOL res -816 -352 R90
WINDOW 0 0 56 VBottom 2
WINDOW 3 32 56 VTop 2
SYMATTR InstName R5
SYMATTR Value 10K
SYMBOL voltage -1536 -528 R0
WINDOW 123 30 137 Left 2
WINDOW 39 0 0 Left 2
SYMATTR Value2 AC 1
SYMATTR InstName V1
SYMATTR Value SINE(0 0.1V 1000)
SYMBOL Misc\\potentiometer -656 -704 R90
WINDOW 0 31 -4 VRight 2
WINDOW 3 54 -40 Invisible 2
SYMATTR InstName U3
SYMATTR Value Rtot=250K wiper=.5
SYMBOL Misc\\potentiometer -656 -528 R90
WINDOW 0 30 -2 VRight 2
WINDOW 3 36 88 Invisible 2
SYMATTR InstName U4
SYMATTR Value Rtot=250K wiper={w}
SYMBOL Misc\\potentiometer -656 -352 R90
WINDOW 0 32 -5 VRight 2
WINDOW 3 36 88 Invisible 2
SYMATTR InstName U5
SYMATTR Value Rtot=250K wiper=.5
SYMBOL cap -624 -432 R90
WINDOW 0 0 32 VBottom 2
WINDOW 3 32 32 VTop 2
SYMATTR InstName C3
SYMATTR Value 4.7n
SYMBOL cap -624 -256 R90
WINDOW 0 0 32 VBottom 2
WINDOW 3 32 32 VTop 2
SYMATTR InstName C4
SYMATTR Value 680p
SYMBOL res -448 -704 R90
WINDOW 0 0 56 VBottom 2
WINDOW 3 32 56 VTop 2
SYMATTR InstName R6
SYMATTR Value 47K
SYMBOL res -624 -624 R0
SYMATTR InstName R7
SYMATTR Value 22K
SYMBOL res -448 -528 R90
WINDOW 0 0 56 VBottom 2
WINDOW 3 32 56 VTop 2
SYMATTR InstName R8
SYMATTR Value 20K
SYMBOL res -448 -352 R90
WINDOW 0 0 56 VBottom 2
WINDOW 3 32 56 VTop 2
SYMATTR InstName R9
SYMATTR Value 10K
SYMBOL cap -256 -240 R90
WINDOW 0 0 32 VBottom 2
WINDOW 3 32 32 VTop 2
SYMATTR InstName C5
SYMATTR Value 10µ
SYMBOL cap -688 -784 R90
WINDOW 0 0 32 VBottom 2
WINDOW 3 32 32 VTop 2
SYMATTR InstName C6
SYMATTR Value 4.7n
SYMBOL cap -688 -608 R90
WINDOW 0 9 55 VBottom 2
WINDOW 3 32 32 VTop 2
SYMATTR InstName C7
SYMATTR Value 680p
SYMBOL res -240 -240 R0
SYMATTR InstName R10
SYMATTR Value 500K
SYMBOL res -304 -592 R0
WINDOW 3 19 87 Left 2
SYMATTR Value 100K
SYMATTR InstName R11
SYMBOL res -304 -704 R0
SYMATTR InstName R12
SYMATTR Value 100K
SYMBOL cap -224 -576 R0
SYMATTR InstName C8
SYMATTR Value 10µ
SYMBOL voltage -80 -640 R0
WINDOW 123 0 0 Left 2
SYMATTR SpiceLine Rser=5
SYMATTR InstName V2
SYMATTR Value 9V
SYMBOL cap -160 -688 R0
SYMATTR InstName C9
SYMATTR Value 10µ
SYMBOL res -336 -240 R90
WINDOW 0 0 56 VBottom 2
WINDOW 3 32 56 VTop 2
SYMATTR InstName R14
SYMATTR Value 470
SYMBOL res -1248 -592 R0
SYMATTR InstName R1
SYMATTR Value 5Meg
SYMBOL res -1360 -688 R90
WINDOW 0 0 56 VBottom 2
WINDOW 3 32 56 VTop 2
SYMATTR InstName R2
SYMATTR Value 1K
TEXT -1464 -72 Left 2 !;tran 3
TEXT -1464 -32 Left 2 !.ac oct 20 10 40000
TEXT -904 -72 Left 2 !.inc TL062.sub
TEXT -904 -32 Left 2 !.inc potentiometer.sub
TEXT -1216 -32 Left 2 !.step lin param w 0 1 0.1
TEXT -608 -824 Left 2 ;U3 - U5: 250K LIN
TEXT -1000 -848 Left 2 ;Preampli 3 EQ\nversion guitare piézo
